FoamFile
{
    version 2.0;
    format ascii;
    class dictionary;
    object blockMeshDict;
}

convertToMeters 1;

// Dimensions
// X = 5.89 → split into 2 (2.945)
// Y = 4.37 → split into 2 (2.185)
// Z = 0 → 1.54 → 3.2

vertices
(
    // Bottom (z=0)
    (0     0     0)
    (2.945 0     0)
    (5.89  0     0)

    (0     2.185 0)
    (2.945 2.185 0)
    (5.89  2.185 0)

    (0     4.37  0)
    (2.945 4.37  0)
    (5.89  4.37  0)

    // Mid (z=1.54)
    (0     0     1.54)
    (2.945 0     1.54)
    (5.89  0     1.54)

    (0     2.185 1.54)
    (2.945 2.185 1.54)
    (5.89  2.185 1.54)

    (0     4.37  1.54)
    (2.945 4.37  1.54)
    (5.89  4.37  1.54)

    // Top (z=3.2)
    (0     0     3.2)
    (2.945 0     3.2)
    (5.89  0     3.2)

    (0     2.185 3.2)
    (2.945 2.185 3.2)
    (5.89  2.185 3.2)

    (0     4.37  3.2)
    (2.945 4.37  3.2)
    (5.89  4.37  3.2)
);

blocks
(
    hex(0 2 8 6 18 20 26 24) (60 50 30) simpleGrading (1 1 1)
    // Bottom layer (with partitions)
    // hex (0 1 4 3 9 10 13 12) (20 20 15) simpleGrading (1 1 1)
    // hex (1 2 5 4 10 11 14 13) (20 20 15) simpleGrading (1 1 1)
    // hex (3 4 7 6 12 13 16 15) (20 20 15) simpleGrading (1 1 1)
    // hex (4 5 8 7 13 14 17 16) (20 20 15) simpleGrading (1 1 1)

    // // Top layer (open)
    // hex (9 10 13 12 18 19 22 21) (20 20 15) simpleGrading (1 1 1)
    // hex (10 11 14 13 19 20 23 22) (20 20 15) simpleGrading (1 1 1)
    // hex (12 13 16 15 21 22 25 24) (20 20 15) simpleGrading (1 1 1)
    // hex (13 14 17 16 22 23 26 25) (20 20 15) simpleGrading (1 1 1)
);

edges
(
);

boundary
(
    floor
    {
        type wall;
        faces
        (
            (0 2 8 6)
            // (0 1 4 3)
            // (1 2 5 4)
            // (3 4 7 6)
            // (4 5 8 7)
        );
    }

    ceiling
    {
        type wall;
        faces
        (
            // (18 19 22 21)
            // (19 20 23 22)
            // (21 22 25 24)
            // (22 23 26 25)
            (18 20 26 24)
        );
    }

    walls
    {
        type wall;
        faces
        (
            (0 2 20 18)
            (6 8 26 24)
            (0 6 24 18)
            (2 8 26 20)
            // // front
            // (0 1 10 9)
            // (1 2 11 10)
            // (9 10 19 18)
            // (10 11 20 19)

            // // back
            // (6 7 16 15)
            // (7 8 17 16)
            // (15 16 25 24)
            // (16 17 26 25)

            // // left
            // (0 3 12 9)
            // (3 6 15 12)
            // (9 12 21 18)
            // (12 15 24 21)

            // // right
            // (2 5 14 11)
            // (5 8 17 14)
            // (11 14 23 20)
            // (14 17 26 23)
        );
    }
    
);
mergePatchPairs ();
