FoamFile
{
    version     2.0;
    format      ascii;
    class       dictionary;
    object      transportProperties;
}

viscosityModel constant;

nu 1.5e-05;
rho 1.225;